/*--------------------------------*- C++ -*----------------------------------*\
  =========                 |
  \\      /  F ield         | OpenFOAM: The Open Source CFD Toolbox
   \\    /   O peration     | Website:  https://openfoam.org
    \\  /    A nd           | Version:  13
     \\/     M anipulation  |
\*---------------------------------------------------------------------------*/
FoamFile
{
    format      ascii;
    class       dictionary;
    location    "constant";
    object      physicalProperties.phase2;
}
// * * * * * * * * * * * * * * * * * * * * * * * * * * * * * * * * * * * * * //

viscosityModel  constant;

nu              1.38e-05;

rho             1.6337;


// beamWeldFoam thermal properties

// Liquid specific heat capacity [J/kg/K]
cp              520;

// Solid specific heat capacity [J/kg/K]
cpsolid         520;

// Liquid thermal conductivity [W/m/K]
kappa           0.0177;

// Solid thermal conductivity [W/m/K]
kappasolid      0.0177;

// Solidus temperature [K]
Tsolidus        5.65;

// Liquidus temperature [K]
Tliquidus       10.05;

// Latent heat of fusion [J/kg]
LatentHeat      1.0e-6;

// Thermal expansion coefficient [1/K]
beta            1.0e-5;

// ************************************************************************* //
